@<TRIPOS>MOLECULE
1a9m_ligand
 98 98 0 0 0
SMALL
USER_CHARGES

@<TRIPOS>ATOM
      1 C          45.5100   23.0020   66.2580 C.3     1  UNL1        0.0122
      2 C          44.7100   22.2760   65.6330 C.2     1  UNL1        0.2102
      3 C          44.3590   19.9760   64.7470 C.3     1  UNL1        0.0493
      4 C          45.3320   19.2840   63.8240 C.3     1  UNL1       -0.0293
      5 C          45.9590   19.9850   62.6470 C.3     1  UNL1       -0.0393
      6 C          45.1630   21.1900   62.1830 C.3     1  UNL1       -0.0502
      7 C          45.7320   21.7660   60.9070 C.3     1  UNL1       -0.0528
      8 C          47.2140   22.1150   61.0830 C.3     1  UNL1       -0.0530
      9 C          48.0570   20.9850   61.7110 C.3     1  UNL1       -0.0528
     10 C          47.3850   20.4040   62.9280 C.3     1  UNL1       -0.0502
     11 C          43.6380   18.8840   65.6080 C.3     1  UNL1        0.0742
     12 C          42.7960   19.5050   66.7060 C.3     1  UNL1       -0.0138
     13 C          41.4600   18.8010   66.8660 C.3     1  UNL1        0.0403
     14 C          40.5360   19.6130   67.8360 C.3     1  UNL1       -0.0355
     15 C          39.9940   20.8780   67.1990 C.3     1  UNL1       -0.0620
     16 C          39.4250   18.7550   68.3890 C.3     1  UNL1       -0.0620
     17 C          40.8390   18.5800   65.4800 C.2     1  UNL1        0.2170
     18 C          39.3800   17.1150   64.2650 C.3     1  UNL1        0.0998
     19 C          39.9620   16.7890   62.8680 C.3     1  UNL1       -0.0177
     20 C          40.0380   15.3260   62.4810 C.3     1  UNL1        0.0259
     21 C          38.7290   14.7960   61.9710 C.2     1  UNL1        0.2106
     22 C          38.3970   16.0710   64.7570 C.2     1  UNL1        0.2340
     23 C          36.0780   15.3880   64.7620 C.3     1  UNL1        0.0994
     24 C          35.1670   15.2450   63.5670 C.2     1  UNL1        0.2308
     25 C          35.3380   16.0590   65.9140 C.3     1  UNL1       -0.0212
     26 C          35.9920   15.8580   67.2590 C.3     1  UNL1       -0.0100
     27 C          35.9500   17.1280   68.0770 C.3     1  UNL1       -0.0210
     28 C          34.3030   17.2140   69.9120 C.3     1  UNL1        0.1639
     29 N          45.0620   20.9790   65.5660 N.am    1  UNL1       -0.3102
     30 N          40.4350   17.3410   65.2340 N.am    1  UNL1       -0.3037
     31 N          38.1560   15.4730   60.9940 N.am    1  UNL1       -0.3293
     32 N          37.1640   16.2210   64.3060 N.am    1  UNL1       -0.3025
     33 N          34.6060   14.0510   63.5010 N.am    1  UNL1       -0.3278
     34 N          35.5030   16.8760   69.4420 N.4     1  UNL1        0.3142
     35 N          33.5530   18.1050   69.2620 N.4     1  UNL1        0.3071
     36 N          33.8540   16.6660   71.0360 N.4     1  UNL1        0.3071
     37 O          43.6700   22.7450   65.1250 O.2     1  UNL1       -0.2761
     38 O          44.5850   18.0080   66.1960 O.3     1  UNL1       -0.3899
     39 O          40.7610   19.4940   64.6310 O.2     1  UNL1       -0.2755
     40 O          38.2180   13.8060   62.4730 O.2     1  UNL1       -0.2760
     41 O          38.7320   15.1970   65.5570 O.2     1  UNL1       -0.2738
     42 O          34.9930   16.1380   62.7260 O.2     1  UNL1       -0.2740
     43 H          45.1506   24.0098   66.2595 H       1  UNL1        0.0322
     44 H          46.4689   22.9660   65.7847 H       1  UNL1        0.0322
     45 H          45.5963   22.6526   67.2657 H       1  UNL1        0.0322
     46 H          43.6158   20.5096   64.1921 H       1  UNL1        0.0524
     47 H          44.8145   18.4364   63.4257 H       1  UNL1        0.0287
     48 H          46.1745   19.1282   64.4650 H       1  UNL1        0.0287
     49 H          45.9568   19.2619   61.8583 H       1  UNL1        0.0301
     50 H          45.1892   21.9398   62.9459 H       1  UNL1        0.0268
     51 H          44.1573   20.8777   61.9934 H       1  UNL1        0.0268
     52 H          45.1907   22.6524   60.6499 H       1  UNL1        0.0265
     53 H          45.6407   21.0363   60.1298 H       1  UNL1        0.0265
     54 H          47.2838   22.9765   61.7137 H       1  UNL1        0.0265
     55 H          47.6090   22.2869   60.1036 H       1  UNL1        0.0265
     56 H          49.0101   21.3796   61.9955 H       1  UNL1        0.0265
     57 H          48.1675   20.2064   60.9854 H       1  UNL1        0.0265
     58 H          47.9386   19.5474   63.2515 H       1  UNL1        0.0268
     59 H          47.3624   21.1609   63.6840 H       1  UNL1        0.0268
     60 H          42.9967   18.3371   64.9488 H       1  UNL1        0.0612
     61 H          42.6184   20.5324   66.4658 H       1  UNL1        0.0298
     62 H          43.3320   19.4097   67.6272 H       1  UNL1        0.0298
     63 H          41.5918   17.8380   67.3133 H       1  UNL1        0.0397
     64 H          41.1503   19.9213   68.6561 H       1  UNL1        0.0303
     65 H          39.3699   20.6202   66.3690 H       1  UNL1        0.0233
     66 H          40.8082   21.4830   66.8586 H       1  UNL1        0.0233
     67 H          39.4215   21.4233   67.9199 H       1  UNL1        0.0233
     68 H          38.7926   18.4311   67.5890 H       1  UNL1        0.0233
     69 H          38.8504   19.3236   69.0900 H       1  UNL1        0.0233
     70 H          39.8441   17.9018   68.8802 H       1  UNL1        0.0233
     71 H          38.8244   18.0228   64.1547 H       1  UNL1        0.0595
     72 H          40.9553   17.1850   62.8313 H       1  UNL1        0.0292
     73 H          39.2772   17.2263   62.1718 H       1  UNL1        0.0292
     74 H          40.3261   14.7583   63.3410 H       1  UNL1        0.0359
     75 H          40.7544   15.2360   61.6913 H       1  UNL1        0.0359
     76 H          36.4227   14.4416   65.1233 H       1  UNL1        0.0594
     77 H          34.3471   15.6575   65.9576 H       1  UNL1        0.0290
     78 H          35.3461   17.1109   65.7182 H       1  UNL1        0.0290
     79 H          37.0120   15.5698   67.1125 H       1  UNL1        0.0318
     80 H          35.4588   15.0950   67.7866 H       1  UNL1        0.0318
     81 H          35.2757   17.8172   67.6130 H       1  UNL1        0.0818
     82 H          36.9406   17.5303   68.1194 H       1  UNL1        0.0818
     83 H          45.8364   20.6822   66.0965 H       1  UNL1        0.1490
     84 H          40.8477   16.5814   65.7051 H       1  UNL1        0.1495
     85 H          38.6017   16.2658   60.6171 H       1  UNL1        0.1449
     86 H          37.2828   15.1853   60.6420 H       1  UNL1        0.1449
     87 H          36.9811   16.9218   63.6392 H       1  UNL1        0.1495
     88 H          34.7847   13.3837   64.2024 H       1  UNL1        0.1450
     89 H          34.0092   13.8284   62.7504 H       1  UNL1        0.1450
     90 H          36.1776   17.3478   70.0443 H       1  UNL1        0.2153
     91 H          35.4261   15.8589   69.4338 H       1  UNL1        0.2153
     92 H          34.0469   18.4207   68.4273 H       1  UNL1        0.2130
     93 H          33.3689   18.9028   69.8703 H       1  UNL1        0.2130
     94 H          32.6696   17.6729   68.9913 H       1  UNL1        0.2130
     95 H          34.5491   16.0127   71.3971 H       1  UNL1        0.2130
     96 H          32.9844   16.1673   70.8474 H       1  UNL1        0.2130
     97 H          33.6837   17.3973   71.7264 H       1  UNL1        0.2130
     98 H          45.1629   18.5096   66.7920 H       1  UNL1        0.2099
@<TRIPOS>UNITY_ATOM_ATTR
34 1
charge 1
35 1
charge 1
36 1
charge 1
@<TRIPOS>BOND
     1     1     2    1
     2     2    37    2
     3     2    29   am
     4    29     3    1
     5     3    11    1
     6     3     4    1
     7     4     5    1
     8     5    10    1
     9     5     6    1
    10     6     7    1
    11     7     8    1
    12     8     9    1
    13     9    10    1
    14    11    38    1
    15    11    12    1
    16    12    13    1
    17    13    17    1
    18    13    14    1
    19    14    16    1
    20    14    15    1
    21    17    39    2
    22    17    30   am
    23    30    18    1
    24    18    22    1
    25    18    19    1
    26    19    20    1
    27    20    21    1
    28    21    40    2
    29    21    31   am
    30    22    41    2
    31    22    32   am
    32    32    23    1
    33    23    25    1
    34    23    24    1
    35    24    42    2
    36    24    33   am
    37    25    26    1
    38    26    27    1
    39    27    34    1
    40    34    28    1
    41    28    35    1
    42    28    36    1
    43     1    43    1
    44     1    44    1
    45     1    45    1
    46     3    46    1
    47     4    47    1
    48     4    48    1
    49     5    49    1
    50     6    50    1
    51     6    51    1
    52     7    52    1
    53     7    53    1
    54     8    54    1
    55     8    55    1
    56     9    56    1
    57     9    57    1
    58    10    58    1
    59    10    59    1
    60    11    60    1
    61    12    61    1
    62    12    62    1
    63    13    63    1
    64    14    64    1
    65    15    65    1
    66    15    66    1
    67    15    67    1
    68    16    68    1
    69    16    69    1
    70    16    70    1
    71    18    71    1
    72    19    72    1
    73    19    73    1
    74    20    74    1
    75    20    75    1
    76    23    76    1
    77    25    77    1
    78    25    78    1
    79    26    79    1
    80    26    80    1
    81    27    81    1
    82    27    82    1
    83    29    83    1
    84    30    84    1
    85    31    85    1
    86    31    86    1
    87    32    87    1
    88    33    88    1
    89    33    89    1
    90    34    90    1
    91    34    91    1
    92    35    92    1
    93    35    93    1
    94    35    94    1
    95    36    95    1
    96    36    96    1
    97    36    97    1
    98    38    98    1
