@<TRIPOS>MOLECULE
1a4k_ligand
 53 56 0 0 0
SMALL
USER_CHARGES

@<TRIPOS>ATOM
      1 C22        15.6040    7.0570   -2.2840 C.3     1  FRA11       0.0125
      2 C1         15.9760    5.7400   -1.5940 C.2     1  FRA11       0.2141
      3 O3         15.4720    4.6940   -1.9840 O.2     1  FRA11      -0.2758
      4 N1         16.8250    5.6200   -0.5830 N.am    1  FRA11      -0.2857
      5 C2         17.8010    6.4300    0.1030 C.ar    1  FRA11       0.0335
      6 C7         17.4160    7.6830    0.6260 C.ar    1  FRA11      -0.0387
      7 C6         18.3390    8.4880    1.2940 C.ar    1  FRA11      -0.0381
      8 C5         19.6990    8.0850    1.4790 C.ar    1  FRA11       0.0440
      9 C4         20.0900    6.8050    0.9420 C.ar    1  FRA11      -0.0381
     10 C3         19.1510    5.9910    0.2640 C.ar    1  FRA11      -0.0387
     11 N5         20.6510    9.0020    2.2090 N.am    1  FRA11      -0.2099
     12 C11        20.3460    9.7660    3.3110 C.2     1  FRA11       0.2303
     13 C10        21.5050   10.6030    3.7940 C.3     1  FRA11       0.0524
     14 C9         22.6620   10.2210    2.8080 C.3     1  FRA11       0.0691
     15 C8         21.9530    9.2230    1.8830 C.2     1  FRA11       0.2321
     16 O11        19.2670    9.8250    3.8880 O.2     1  FRA11      -0.2745
     17 O8         22.5660    8.7090    0.9450 O.2     1  FRA11      -0.2744
     18 C12        21.3110   12.2290    3.7910 C.3     1  FRA11      -0.0290
     19 C17        21.0230   12.7550    2.2910 C.3     1  FRA11      -0.0475
     20 C16        22.2250   12.3000    1.3290 C.3     1  FRA11      -0.0305
     21 C14        23.7240   12.4530    3.4150 C.3     1  FRA11      -0.0305
     22 C13        22.6700   12.8440    4.2460 C.3     1  FRA11      -0.0475
     23 C15        23.3440   11.4890    2.1610 C.3     1  FRA11       0.0495
     24 N15        24.4370   10.9940    1.2860 N.am    1  FRA11      -0.2748
     25 C18        25.7120   10.8320    1.5630 C.2     1  FRA11       0.4011
     26 O18        26.2400   11.0850    2.6430 O.2     1  FRA11      -0.2265
     27 O19        26.3270   10.3200    0.4320 O.3     1  FRA11      -0.4444
     28 C19        27.7520   10.0260    0.4470 C.3     1  FRA11       0.1331
     29 C20        28.2080    9.2280   -0.7690 C.2     1  FRA11       0.0791
     30 O20        29.1480    8.4040   -0.6340 O.co2   1  FRA11      -0.5463
     31 O21        27.6260    9.4150   -1.8690 O.co2   1  FRA11      -0.5463
     32 H          16.1317    7.8641   -1.8202 H       1  FRA11       0.0323
     33 H          14.5505    7.2214   -2.1944 H       1  FRA11       0.0323
     34 H          15.8701    7.0049   -3.3191 H       1  FRA11       0.0323
     35 H          16.7748    4.7200   -0.1871 H       1  FRA11       0.1548
     36 H          16.4426    8.0068    0.5132 H       1  FRA11       0.0637
     37 H          18.0318    9.4005    1.6654 H       1  FRA11       0.0637
     38 H          21.0630    6.4795    1.0530 H       1  FRA11       0.0637
     39 H          19.4428    5.0768   -0.1155 H       1  FRA11       0.0637
     40 H          21.6667   10.3910    4.8302 H       1  FRA11       0.0405
     41 H          23.5310    9.7723    3.2420 H       1  FRA11       0.0423
     42 H          20.4964   12.5030    4.4283 H       1  FRA11       0.0308
     43 H          20.1038   12.3377    1.9363 H       1  FRA11       0.0269
     44 H          20.9504   13.8225    2.2934 H       1  FRA11       0.0269
     45 H          21.8371   11.6704    0.5557 H       1  FRA11       0.0286
     46 H          22.6762   13.1728    0.9052 H       1  FRA11       0.0286
     47 H          24.1710   13.3405    3.0183 H       1  FRA11       0.0286
     48 H          24.3699   11.8674    4.0353 H       1  FRA11       0.0286
     49 H          22.8787   12.5210    5.2445 H       1  FRA11       0.0269
     50 H          22.5853   13.9094    4.1947 H       1  FRA11       0.0269
     51 H          24.1692   10.7533    0.3697 H       1  FRA11       0.1526
     52 H          27.9745    9.4615    1.3283 H       1  FRA11       0.0761
     53 H          28.2720   10.9610    0.4298 H       1  FRA11       0.0761
@<TRIPOS>UNITY_ATOM_ATTR
30 1
charge -1
@<TRIPOS>BOND
     1     1     2    1
     2     2     4   am
     3     2     3    2
     4     4     5    1
     5     5    10   ar
     6     5     6   ar
     7     6     7   ar
     8     7     8   ar
     9     8    11    1
    10     8     9   ar
    11     9    10   ar
    12    11    15   am
    13    11    12   am
    14    12    16    2
    15    12    13    1
    16    13    18    1
    17    13    14    1
    18    14    23    1
    19    14    15    1
    20    15    17    2
    21    23    21    1
    22    23    24    1
    23    23    20    1
    24    20    19    1
    25    19    18    1
    26    18    22    1
    27    22    21    1
    28    24    25   am
    29    25    27    1
    30    25    26    2
    31    27    28    1
    32    28    29    1
    33    29    31   ar
    34    29    30   ar
    35     1    32    1
    36     1    33    1
    37     1    34    1
    38     4    35    1
    39     6    36    1
    40     7    37    1
    41     9    38    1
    42    10    39    1
    43    13    40    1
    44    14    41    1
    45    18    42    1
    46    19    43    1
    47    19    44    1
    48    20    45    1
    49    20    46    1
    50    21    47    1
    51    21    48    1
    52    22    49    1
    53    22    50    1
    54    24    51    1
    55    28    52    1
    56    28    53    1
