@<TRIPOS>MOLECULE
1a30_ligand
 49 48 0 0 0
SMALL
USER_CHARGES

@<TRIPOS>ATOM
      1 N           4.8410   27.5760    5.3100 N.4     1  GLU1        0.2274
      2 CA          5.7330   26.3940    5.1650 C.3     1  GLU1        0.0535
      3 C           7.1740   26.7720    5.5040 C.2     1  GLU1        0.2618
      4 O           7.6240   27.8870    5.2180 O.2     1  GLU1       -0.2696
      5 CB          5.6380   25.8180    3.7500 C.3     1  GLU1        0.0040
      6 CG          5.8270   26.8460    2.6520 C.3     1  GLU1       -0.0076
      7 CD          5.6250   26.2750    1.2620 C.2     1  GLU1        0.0420
      8 OE1         4.6630   25.4970    1.0650 O.co2   1  GLU1       -0.5498
      9 OE2         6.4250   26.6200    0.3630 O.co2   1  GLU1       -0.5498
     10 N           7.8730   25.8560    6.1630 N.am    2  ASP2       -0.2990
     11 CA          9.2580   26.0720    6.5600 C.3     2  ASP2        0.1046
     12 C          10.1010   24.9180    6.0470 C.2     2  ASP2        0.2342
     13 O          10.1820   23.8640    6.6820 O.2     2  ASP2       -0.2738
     14 CB          9.3460   26.1960    8.0790 C.3     2  ASP2        0.0138
     15 CG          8.6490   27.4410    8.5880 C.2     2  ASP2        0.0440
     16 OD1         9.2700   28.5180    8.5210 O.co2   2  ASP2       -0.5497
     17 OD2         7.4740   27.3570    9.0120 O.co2   2  ASP2       -0.5497
     18 N          10.6860   25.1150    4.8690 N.am    3  LEU3       -0.3058
     19 CA         11.4980   24.0930    4.2260 C.3     3  LEU3        0.0629
     20 C          12.9840   24.3990    4.2680 C.2     3  LEU3        0.0620
     21 OXT        13.7840   23.4420    4.1920 O.co2   3  LEU3       -0.5479
     22 CB         11.0380   23.9220    2.7850 C.3     3  LEU3       -0.0269
     23 CG          9.5830   23.4660    2.7700 C.3     3  LEU3       -0.0447
     24 CD2         8.8190   24.1970    1.7080 C.3     3  LEU3       -0.0626
     25 CD1         9.5210   21.9550    2.6020 C.3     3  LEU3       -0.0626
     26 O          13.3340   25.5920    4.3780 O.co2   3  LEU3       -0.5479
     27 H           4.9176   27.9456    6.2576 H       1  GLU1        0.2002
     28 H           3.8762   27.2979    5.1305 H       1  GLU1        0.2002
     29 H           5.1177   28.2948    4.6413 H       1  GLU1        0.2002
     30 H           5.4133   25.6385    5.8519 H       1  GLU1        0.0949
     31 H           4.6720   25.3733    3.6319 H       1  GLU1        0.0328
     32 H           6.4330   25.1088    3.6504 H       1  GLU1        0.0328
     33 H           6.8209   27.2367    2.7186 H       1  GLU1        0.0327
     34 H           5.0876   27.6060    2.7955 H       1  GLU1        0.0327
     35 H           7.4407   25.0014    6.3913 H       2  ASP2        0.1497
     36 H           9.6296   26.9818    6.1368 H       2  ASP2        0.0598
     37 H          10.3768   26.2365    8.3632 H       2  ASP2        0.0348
     38 H           8.8592   25.3456    8.5088 H       2  ASP2        0.0348
     39 H          10.5656   25.9812    4.4169 H       3  LEU3        0.1494
     40 H          11.3615   23.1840    4.7737 H       3  LEU3        0.0560
     41 H          11.6474   23.1882    2.3002 H       3  LEU3        0.0289
     42 H          11.1262   24.8547    2.2680 H       3  LEU3        0.0289
     43 H           9.1174   23.7039    3.7035 H       3  LEU3        0.0296
     44 H           9.2502   23.9888    0.7511 H       3  LEU3        0.0232
     45 H           8.8626   25.2492    1.8975 H       3  LEU3        0.0232
     46 H           7.7987   23.8750    1.7171 H       3  LEU3        0.0232
     47 H           9.9795   21.6801    1.6751 H       3  LEU3        0.0232
     48 H           8.4991   21.6377    2.6024 H       3  LEU3        0.0232
     49 H          10.0408   21.4846    3.4104 H       3  LEU3        0.0232
@<TRIPOS>UNITY_ATOM_ATTR
1 1
charge 1
8 1
charge -1
16 1
charge -1
21 1
charge -1
@<TRIPOS>BOND
     1     3     2    1
     2     2     5    1
     3     2     1    1
     4     5     6    1
     5     6     7    1
     6     7     8   ar
     7     7     9   ar
     8     3     4    2
     9    12    11    1
    10    11    14    1
    11    11    10    1
    12    14    15    1
    13    15    16   ar
    14    15    17   ar
    15    12    13    2
    16    19    20    1
    17    19    22    1
    18    18    19    1
    19    22    23    1
    20    23    25    1
    21    23    24    1
    22    20    26   ar
    23    20    21   ar
    24    10     3   am
    25    12    18   am
    26     1    27    1
    27     1    28    1
    28     1    29    1
    29     2    30    1
    30     5    31    1
    31     5    32    1
    32     6    33    1
    33     6    34    1
    34    10    35    1
    35    11    36    1
    36    14    37    1
    37    14    38    1
    38    18    39    1
    39    19    40    1
    40    22    41    1
    41    22    42    1
    42    23    43    1
    43    24    44    1
    44    24    45    1
    45    24    46    1
    46    25    47    1
    47    25    48    1
    48    25    49    1
