@<TRIPOS>MOLECULE
1a4w_ligand
 85 88 0 0 0
SMALL
USER_CHARGES

@<TRIPOS>ATOM
      1 C          17.7350  -17.1780   22.6120 C.ar    1  UNL1        0.1130
      2 C          18.5430  -17.3500   21.4620 C.ar    1  UNL1       -0.0347
      3 C          19.8770  -17.0460   21.5580 C.ar    1  UNL1       -0.0593
      4 C          20.4010  -16.5660   22.7660 C.ar    1  UNL1       -0.0521
      5 C          19.6130  -16.3580   23.8930 C.ar    1  UNL1        0.0050
      6 C          20.0840  -15.7910   25.0460 C.ar    1  UNL1        0.0371
      7 C          19.2410  -15.5680   26.1140 C.ar    1  UNL1       -0.0401
      8 C          17.8930  -15.9710   26.0280 C.ar    1  UNL1       -0.0594
      9 C          17.3700  -16.5100   24.8790 C.ar    1  UNL1       -0.0520
     10 C          18.2050  -16.6890   23.8090 C.ar    1  UNL1        0.0102
     11 N          21.3830  -15.2850   25.1040 N.pl3   1  UNL1       -0.3355
     12 C          21.8980  -14.2170   24.2140 C.3     1  UNL1        0.0004
     13 C          22.6350  -16.2130   25.4960 C.3     1  UNL1        0.0004
     14 S          15.9090  -17.5810   22.4170 S.O2    1  UNL1        0.0596
     15 O          15.9880  -18.0130   21.0100 O.2     1  UNL1       -0.1530
     16 O          14.9980  -18.1910   23.4020 O.2     1  UNL1       -0.1530
     17 N          14.8930  -15.9700   22.4850 N.3     1  UNL1       -0.1780
     18 C          15.1930  -15.1140   21.2960 C.3     1  UNL1        0.1051
     19 C          16.3070  -14.1670   21.7520 C.2     1  UNL1        0.2344
     20 O          16.2120  -13.7810   22.9140 O.2     1  UNL1       -0.2738
     21 C          13.9420  -14.3540   20.8790 C.3     1  UNL1       -0.0227
     22 C          13.2320  -13.6860   22.0580 C.3     1  UNL1       -0.0103
     23 C          11.8920  -13.1330   21.5950 C.3     1  UNL1       -0.0210
     24 N          11.2180  -12.6470   22.7800 N.4     1  UNL1        0.3142
     25 C          11.4570  -11.5540   23.4830 C.3     1  UNL1        0.1639
     26 N          12.3590  -10.6740   23.0450 N.4     1  UNL1        0.3071
     27 N          10.7230  -11.3360   24.5660 N.4     1  UNL1        0.3071
     28 N          17.2800  -13.6920   20.8300 N.am    1  UNL1       -0.2971
     29 C          17.0430  -14.0330   19.3270 C.3     1  UNL1        0.0264
     30 C          18.4210  -14.4720   18.8090 C.3     1  UNL1       -0.0342
     31 C          19.6100  -13.4170   19.1940 C.3     1  UNL1       -0.0500
     32 C          19.6960  -13.0830   20.7650 C.3     1  UNL1       -0.0371
     33 C          18.3510  -12.6800   21.3100 C.3     1  UNL1        0.0150
     34 C          16.5930  -13.0140   18.5500 C.3     1  UNL1       -0.0272
     35 C          15.9410  -13.4250   17.1790 C.3     1  UNL1        0.0142
     36 S          15.7830  -14.9040   14.4580 S.2     1  UNL1       -0.0728
     37 O          17.4880  -11.9220   16.2870 O.2     1  UNL1       -0.2899
     38 C          17.0590  -15.5830   13.5080 C.ar    1  UNL1       -0.0041
     39 C          16.8640  -13.5560   14.7390 C.ar    1  UNL1        0.1434
     40 C          16.8250  -12.9030   16.1070 C.2     1  UNL1        0.1880
     41 C          18.1460  -14.7340   13.4510 C.ar    1  UNL1        0.0355
     42 N          18.0490  -13.5540   14.1060 N.ar    1  UNL1       -0.2444
     43 H          18.1396  -17.6943   20.5767 H       1  UNL1        0.0637
     44 H          20.4948  -17.1707   20.7408 H       1  UNL1        0.0618
     45 H          21.4105  -16.3589   22.8214 H       1  UNL1        0.0624
     46 H          19.5938  -15.1100   26.9689 H       1  UNL1        0.0636
     47 H          17.2821  -15.8576   26.8520 H       1  UNL1        0.0618
     48 H          16.3737  -16.7733   24.8232 H       1  UNL1        0.0624
     49 H          21.0933  -13.5727   23.9274 H       1  UNL1        0.0428
     50 H          22.3301  -14.6584   23.3403 H       1  UNL1        0.0428
     51 H          22.6424  -13.6491   24.7320 H       1  UNL1        0.0428
     52 H          22.3067  -17.0010   26.1411 H       1  UNL1        0.0428
     53 H          23.3721  -15.6233   25.9998 H       1  UNL1        0.0428
     54 H          23.0598  -16.6325   24.6081 H       1  UNL1        0.0428
     55 H          13.8992  -16.1994   22.4918 H       1  UNL1        0.1489
     56 H          15.5005  -15.6820   20.4430 H       1  UNL1        0.0573
     57 H          13.2639  -15.0401   20.4161 H       1  UNL1        0.0287
     58 H          14.2455  -13.5797   20.2058 H       1  UNL1        0.0287
     59 H          13.8373  -12.8873   22.4329 H       1  UNL1        0.0317
     60 H          13.0724  -14.4062   22.8331 H       1  UNL1        0.0317
     61 H          11.3139  -13.9045   21.1309 H       1  UNL1        0.0818
     62 H          12.0229  -12.3517   20.8757 H       1  UNL1        0.0818
     63 H          11.3101  -13.4071   23.4539 H       1  UNL1        0.2153
     64 H          10.3485  -12.3475   22.3388 H       1  UNL1        0.2153
     65 H          12.8078  -11.0371   22.2041 H       1  UNL1        0.2130
     66 H          13.0630  -10.5208   23.7670 H       1  UNL1        0.2130
     67 H          11.8958   -9.7913   22.8291 H       1  UNL1        0.2130
     68 H          10.1019  -12.1301   24.7213 H       1  UNL1        0.2130
     69 H          10.1677  -10.4904   24.4358 H       1  UNL1        0.2130
     70 H          11.3349  -11.2199   25.3738 H       1  UNL1        0.2130
     71 H          16.2692  -14.7696   19.2681 H       1  UNL1        0.0500
     72 H          18.3735  -14.5593   17.7436 H       1  UNL1        0.0283
     73 H          18.6568  -15.4062   19.2744 H       1  UNL1        0.0283
     74 H          19.4360  -12.5040   18.6638 H       1  UNL1        0.0266
     75 H          20.5365  -13.8778   18.9216 H       1  UNL1        0.0266
     76 H          20.3878  -12.2804   20.9139 H       1  UNL1        0.0280
     77 H          20.0215  -13.9619   21.2812 H       1  UNL1        0.0280
     78 H          18.3852  -12.6761   22.3794 H       1  UNL1        0.0465
     79 H          18.1011  -11.7003   20.9597 H       1  UNL1        0.0465
     80 H          17.4233  -12.3732   18.3381 H       1  UNL1        0.0287
     81 H          15.8108  -12.5479   19.1120 H       1  UNL1        0.0287
     82 H          14.9648  -12.9955   17.0925 H       1  UNL1        0.0346
     83 H          15.8386  -14.4877   17.1071 H       1  UNL1        0.0346
     84 H          17.0136  -16.5036   13.0439 H       1  UNL1        0.0709
     85 H          18.9991  -14.9893   12.9293 H       1  UNL1        0.0835
@<TRIPOS>UNITY_ATOM_ATTR
24 1
charge 1
26 1
charge 1
27 1
charge 1
@<TRIPOS>BOND
     1    14     1    1
     2     1    10   ar
     3     1     2   ar
     4     2     3   ar
     5     3     4   ar
     6     5     4   ar
     7    10     5   ar
     8     5     6   ar
     9     6    11    1
    10     6     7   ar
    11     8     7   ar
    12     9     8   ar
    13    10     9   ar
    14    11    13    1
    15    11    12    1
    16    14    16    2
    17    14    15    2
    18    19    18    1
    19    18    21    1
    20    18    17    1
    21    21    22    1
    22    22    23    1
    23    23    24    1
    24    24    25    1
    25    25    26    1
    26    25    27    1
    27    19    20    2
    28    28    33    1
    29    29    28    1
    30    34    29    1
    31    29    30    1
    32    30    31    1
    33    31    32    1
    34    33    32    1
    35    35    34    1
    36    39    36   ar
    37    36    38   ar
    38    41    38   ar
    39    42    41   ar
    40    39    42   ar
    41    40    39    1
    42    40    37    2
    43    17    14    1
    44    28    19   am
    45    40    35    1
    46     2    43    1
    47     3    44    1
    48     4    45    1
    49     7    46    1
    50     8    47    1
    51     9    48    1
    52    12    49    1
    53    12    50    1
    54    12    51    1
    55    13    52    1
    56    13    53    1
    57    13    54    1
    58    17    55    1
    59    18    56    1
    60    21    57    1
    61    21    58    1
    62    22    59    1
    63    22    60    1
    64    23    61    1
    65    23    62    1
    66    24    63    1
    67    24    64    1
    68    26    65    1
    69    26    66    1
    70    26    67    1
    71    27    68    1
    72    27    69    1
    73    27    70    1
    74    29    71    1
    75    30    72    1
    76    30    73    1
    77    31    74    1
    78    31    75    1
    79    32    76    1
    80    32    77    1
    81    33    78    1
    82    33    79    1
    83    34    80    1
    84    34    81    1
    85    35    82    1
    86    35    83    1
    87    38    84    1
    88    41    85    1
