@<TRIPOS>MOLECULE
1a1e_ligand
 73 74 0 0 0
SMALL
USER_CHARGES

@<TRIPOS>ATOM
      1 C          43.2930   -8.1280   37.5500 C.2     1  UNL1        0.2105
      2 O          44.0670   -7.1860   37.7880 O.2     1  UNL1       -0.2761
      3 C          43.5190   -9.0100   36.3320 C.3     1  UNL1        0.0122
      4 N          42.1690   -8.3110   38.2080 N.am    1  UNL1       -0.3039
      5 C          41.8750   -7.5040   39.3540 C.3     1  UNL1        0.1033
      6 C          42.3970   -8.1890   40.5900 C.2     1  UNL1        0.2343
      7 O          42.8670   -9.3290   40.5910 O.2     1  UNL1       -0.2738
      8 C          40.3910   -7.2910   39.3740 C.3     1  UNL1       -0.0007
      9 C          40.0200   -6.4670   38.1650 C.ar    1  UNL1       -0.0449
     10 C          39.4330   -7.0660   37.0710 C.ar    1  UNL1       -0.0550
     11 C          40.2030   -5.0890   38.1630 C.ar    1  UNL1       -0.0550
     12 C          39.0230   -6.2990   35.9910 C.ar    1  UNL1       -0.0194
     13 C          39.7950   -4.3030   37.0800 C.ar    1  UNL1       -0.0194
     14 C          39.1970   -4.9130   35.9920 C.ar    1  UNL1        0.1233
     15 O          38.7140   -4.1030   34.8990 O.3     1  UNL1       -0.4821
     16 P          39.5630   -3.9590   33.5410 P.3     1  UNL1        0.0441
     17 O          39.2960   -5.2230   32.8550 O.co2   1  UNL1       -0.5675
     18 O          38.9860   -2.7290   32.9200 O.co2   1  UNL1       -0.5675
     19 O          40.9750   -3.8330   34.0580 O.2     1  UNL1       -0.6291
     20 N          42.3460   -7.4520   41.6620 N.am    1  UNL1       -0.3024
     21 C          42.8210   -7.9260   42.9250 C.3     1  UNL1        0.0999
     22 C          41.6490   -8.4730   43.7280 C.2     1  UNL1        0.2359
     23 O          40.5250   -7.9950   43.5040 O.2     1  UNL1       -0.2736
     24 C          43.4630   -6.7590   43.6070 C.3     1  UNL1       -0.0209
     25 C          44.7130   -6.2540   42.9200 C.3     1  UNL1       -0.0111
     26 C          45.8500   -7.2030   43.1550 C.2     1  UNL1        0.0418
     27 O          46.3510   -7.2360   44.2790 O.co2   1  UNL1       -0.5498
     28 O          46.2130   -7.9200   42.2380 O.co2   1  UNL1       -0.5498
     29 N          41.7710   -9.4590   44.6560 N.am    1  UNL1       -0.2997
     30 C          43.0100  -10.2080   44.8790 C.3     1  UNL1        0.0147
     31 C          40.6720   -9.7740   45.5450 C.3     1  UNL1        0.0175
     32 C          43.5030   -9.7480   46.2370 C.3     1  UNL1       -0.0368
     33 C          42.3970   -9.9440   47.2660 C.3     1  UNL1       -0.0474
     34 C          41.0210   -9.3410   46.9320 C.3     1  UNL1       -0.0252
     35 C          40.9160   -7.8430   47.1120 C.3     1  UNL1       -0.0488
     36 C          41.2000   -7.5140   48.5540 C.3     1  UNL1       -0.0530
     37 C          41.5460   -6.0620   48.7310 C.3     1  UNL1       -0.0559
     38 C          40.3430   -5.2830   48.3020 C.3     1  UNL1       -0.0653
     39 H          44.4609   -8.7676   35.8859 H       1  UNL1        0.0322
     40 H          42.7353   -8.8456   35.6222 H       1  UNL1        0.0322
     41 H          43.5198  -10.0374   36.6308 H       1  UNL1        0.0322
     42 H          41.5314   -9.0009   37.9135 H       1  UNL1        0.1495
     43 H          42.3531   -6.5475   39.3173 H       1  UNL1        0.0598
     44 H          40.1110   -6.7718   40.2667 H       1  UNL1        0.0336
     45 H          39.8809   -8.2313   39.3528 H       1  UNL1        0.0336
     46 H          39.2982   -8.0890   37.0557 H       1  UNL1        0.0621
     47 H          40.6487   -4.6368   38.9766 H       1  UNL1        0.0621
     48 H          38.5843   -6.7574   35.1771 H       1  UNL1        0.0654
     49 H          39.9383   -3.2811   37.0926 H       1  UNL1        0.0654
     50 H          41.9704   -6.5440   41.6016 H       1  UNL1        0.1495
     51 H          43.5310   -8.7195   42.8193 H       1  UNL1        0.0595
     52 H          43.7219   -7.0524   44.6029 H       1  UNL1        0.0291
     53 H          42.7530   -5.9588   43.5838 H       1  UNL1        0.0291
     54 H          44.9683   -5.2919   43.3125 H       1  UNL1        0.0325
     55 H          44.5294   -6.1814   41.8684 H       1  UNL1        0.0325
     56 H          43.7294   -9.9807   44.1202 H       1  UNL1        0.0464
     57 H          42.8538  -11.2659   44.8437 H       1  UNL1        0.0464
     58 H          40.4940  -10.8290   45.5338 H       1  UNL1        0.0467
     59 H          39.7898   -9.2627   45.2205 H       1  UNL1        0.0467
     60 H          43.7676   -8.7123   46.1893 H       1  UNL1        0.0280
     61 H          44.3617  -10.3204   46.5197 H       1  UNL1        0.0280
     62 H          42.7281   -9.5053   48.1840 H       1  UNL1        0.0269
     63 H          42.2364  -11.0012   47.3052 H       1  UNL1        0.0269
     64 H          40.3118   -9.7116   47.6424 H       1  UNL1        0.0316
     65 H          39.9299   -7.5168   46.8548 H       1  UNL1        0.0268
     66 H          41.6203   -7.3472   46.4772 H       1  UNL1        0.0268
     67 H          42.0217   -8.1106   48.8912 H       1  UNL1        0.0265
     68 H          40.3189   -7.7207   49.1249 H       1  UNL1        0.0265
     69 H          42.3883   -5.8060   48.1228 H       1  UNL1        0.0263
     70 H          41.8040   -5.8469   49.7469 H       1  UNL1        0.0263
     71 H          40.1098   -5.5185   47.2846 H       1  UNL1        0.0230
     72 H          40.5467   -4.2361   48.3881 H       1  UNL1        0.0230
     73 H          39.5121   -5.5373   48.9264 H       1  UNL1        0.0230
@<TRIPOS>UNITY_ATOM_ATTR
17 1
charge -1
18 1
charge -1
27 1
charge -1
@<TRIPOS>BOND
     1     1     2    2
     2     1     3    1
     3     5     4    1
     4     5     8    1
     5     6     5    1
     6     6     7    2
     7     8     9    1
     8     9    11   ar
     9     9    10   ar
    10    10    12   ar
    11    12    14   ar
    12    14    15    1
    13    13    14   ar
    14    11    13   ar
    15    15    16    1
    16    16    19    2
    17    16    18    1
    18    16    17    1
    19    22    21    1
    20    21    24    1
    21    21    20    1
    22    24    25    1
    23    25    26    1
    24    26    27   ar
    25    26    28   ar
    26    22    23    2
    27    29    31    1
    28    29    30    1
    29    30    32    1
    30    32    33    1
    31    34    33    1
    32    34    35    1
    33    31    34    1
    34    35    36    1
    35    36    37    1
    36    37    38    1
    37     4     1   am
    38    20     6   am
    39    22    29   am
    40     3    39    1
    41     3    40    1
    42     3    41    1
    43     4    42    1
    44     5    43    1
    45     8    44    1
    46     8    45    1
    47    10    46    1
    48    11    47    1
    49    12    48    1
    50    13    49    1
    51    20    50    1
    52    21    51    1
    53    24    52    1
    54    24    53    1
    55    25    54    1
    56    25    55    1
    57    30    56    1
    58    30    57    1
    59    31    58    1
    60    31    59    1
    61    32    60    1
    62    32    61    1
    63    33    62    1
    64    33    63    1
    65    34    64    1
    66    35    65    1
    67    35    66    1
    68    36    67    1
    69    36    68    1
    70    37    69    1
    71    37    70    1
    72    38    71    1
    73    38    72    1
    74    38    73    1
