@<TRIPOS>MOLECULE
1a4r_ligand
 43 45 0 0 0
SMALL
USER_CHARGES

@<TRIPOS>ATOM
      1 N         102.4860   24.8700   -2.9090 N.3     1  UNL1       -0.2699
      2 P         101.5220   25.8860   -2.4280 P.3     1  UNL1        0.2091
      3 O         100.9830   25.4700   -1.0790 O.co2   1  UNL1       -0.7691
      4 O         100.3500   26.2500   -3.2730 O.2     1  UNL1       -0.2890
      5 O         102.4090   27.1490   -2.1360 O.3     1  UNL1       -0.2695
      6 P         102.9800   27.8190   -0.7750 P.3     1  UNL1        0.2183
      7 O         103.9320   26.8730   -0.1570 O.co2   1  UNL1       -0.4371
      8 O         101.8500   28.3180    0.0570 O.2     1  UNL1       -0.5170
      9 O         103.7180   29.0170   -1.4980 O.3     1  UNL1       -0.3246
     10 C         104.8640   28.8490   -2.3670 C.3     1  UNL1        0.0836
     11 C         105.9930   29.8990   -2.1000 C.3     1  UNL1        0.1133
     12 O         105.4820   31.1830   -2.4390 O.3     1  UNL1       -0.3455
     13 C         106.4630   30.0620   -0.6570 C.3     1  UNL1        0.1135
     14 O         107.8730   30.1930   -0.5940 O.3     1  UNL1       -0.3864
     15 C         105.7350   31.2660   -0.0960 C.3     1  UNL1        0.1287
     16 O         106.2980   31.8890    1.0590 O.3     1  UNL1       -0.3847
     17 C         105.5820   32.1390   -1.3490 C.3     1  UNL1        0.1704
     18 N         104.3150   32.9430   -1.5100 N.ar    1  UNL1       -0.2476
     19 C         103.0000   32.5360   -1.3540 C.ar    1  UNL1        0.1042
     20 N         102.0730   33.4460   -1.5560 N.ar    1  UNL1       -0.2244
     21 C         102.8070   34.5960   -1.8890 C.ar    1  UNL1        0.2203
     22 C         102.3660   35.9710   -2.2360 C.ar    1  UNL1        0.2881
     23 O         101.2060   36.3850   -2.3060 O.2     1  UNL1       -0.2651
     24 N         103.4480   36.8880   -2.5220 N.ar    1  UNL1       -0.2538
     25 C         104.8390   36.5560   -2.4810 C.ar    1  UNL1        0.3520
     26 N         105.7330   37.5170   -2.7670 N.pl3   1  UNL1       -0.2898
     27 N         105.2800   35.2710   -2.1570 N.ar    1  UNL1       -0.1591
     28 C         104.2050   34.3230   -1.8660 C.ar    1  UNL1        0.3211
     29 H         101.9895   24.0056   -3.1251 H       1  UNL1        0.1266
     30 H         103.1810   24.6908   -2.1843 H       1  UNL1        0.1266
     31 H         104.5397   28.9477   -3.3819 H       1  UNL1        0.0591
     32 H         105.2748   27.8806   -2.1713 H       1  UNL1        0.0591
     33 H         106.8201   29.5371   -2.6743 H       1  UNL1        0.0647
     34 H         106.2346   29.1975   -0.0693 H       1  UNL1        0.0647
     35 H         108.1494   30.9656   -1.1112 H       1  UNL1        0.2100
     36 H         104.8006   31.0126    0.3596 H       1  UNL1        0.0665
     37 H         107.1910   32.2064    0.8523 H       1  UNL1        0.2101
     38 H         106.3934   32.8353   -1.3086 H       1  UNL1        0.0868
     39 H         102.7601   31.5670   -1.0923 H       1  UNL1        0.1031
     40 H         103.2085   37.8119   -2.7635 H       1  UNL1        0.1760
     41 H         105.4249   38.4236   -2.9957 H       1  UNL1        0.1493
     42 H         106.6963   37.3146   -2.7479 H       1  UNL1        0.1493
     43 H         106.2327   35.0245   -2.1271 H       1  UNL1        0.4580
@<TRIPOS>UNITY_ATOM_ATTR
3 1
charge -1
7 1
charge -1
27 1
charge 1
@<TRIPOS>BOND
     1     2     1    1
     2     2     3    1
     3     2     4    2
     4     2     5    1
     5     5     6    1
     6     6     7    1
     7     6     8    2
     8     6     9    1
     9     9    10    1
    10    10    11    1
    11    11    12    1
    12    11    13    1
    13    12    17    1
    14    13    14    1
    15    13    15    1
    16    15    16    1
    17    17    15    1
    18    17    18    1
    19    18    19   ar
    20    18    28   ar
    21    19    20   ar
    22    20    21   ar
    23    21    22   ar
    24    21    28   ar
    25    22    23    2
    26    22    24   ar
    27    24    25   ar
    28    25    26    1
    29    25    27   ar
    30    27    28   ar
    31     1    29    1
    32     1    30    1
    33    10    31    1
    34    10    32    1
    35    11    33    1
    36    13    34    1
    37    14    35    1
    38    15    36    1
    39    16    37    1
    40    17    38    1
    41    19    39    1
    42    24    40    1
    43    26    41    1
    44    26    42    1
    45    27    43    1
