@<TRIPOS>MOLECULE
1a8i_ligand
 29 30 0 0 0
SMALL
USER_CHARGES

@<TRIPOS>ATOM
      1 C1         33.9450   22.8240   27.5750 C.3     1  GLS11       0.2443
      2 C2         33.9200   23.1700   26.0400 C.3     1  GLS11       0.1380
      3 O2         33.8830   24.5890   25.9230 O.3     1  GLS11      -0.3840
      4 C3         32.6290   22.5860   25.3820 C.3     1  GLS11       0.1141
      5 O3         32.8930   22.6750   23.9970 O.3     1  GLS11      -0.3864
      6 C4         32.5680   21.1140   25.7580 C.3     1  GLS11       0.1119
      7 O4         31.4440   20.5260   25.1190 O.3     1  GLS11      -0.3865
      8 C5         32.5400   20.8780   27.2650 C.3     1  GLS11       0.1131
      9 C6         32.3740   19.4390   27.7160 C.3     1  GLS11       0.0730
     10 O6         33.4340   18.6670   27.1410 O.3     1  GLS11      -0.3924
     11 O5         33.6860   21.4360   27.8970 O.3     1  GLS11      -0.3376
     12 N2         35.2410   23.1500   28.1480 N.am    1  GLS11      -0.2615
     13 C8         35.0630   23.9880   29.1750 C.2     1  GLS11       0.3085
     14 O8         36.0200   24.4190   29.8700 O.2     1  GLS11      -0.2523
     15 N1         33.8110   24.3560   29.4310 N.am    1  GLS11      -0.2362
     16 C7         33.0600   23.6720   28.4970 C.2     1  GLS11       0.2740
     17 O7         31.8440   23.7720   28.4710 O.2     1  GLS11      -0.2702
     18 H          34.7794   22.7564   25.5550 H       1  GLS11       0.0672
     19 H          33.0938   24.9300   26.3722 H       1  GLS11       0.2101
     20 H          31.7249   23.0796   25.6718 H       1  GLS11       0.0648
     21 H          33.7209   22.2116   23.7952 H       1  GLS11       0.2100
     22 H          33.4685   20.6466   25.4180 H       1  GLS11       0.0647
     23 H          30.6326   20.9551   25.4327 H       1  GLS11       0.2100
     24 H          31.6467   21.3801   27.5729 H       1  GLS11       0.0647
     25 H          31.4294   19.0617   27.3841 H       1  GLS11       0.0584
     26 H          32.4091   19.3790   28.7837 H       1  GLS11       0.0584
     27 H          33.3916   18.7293   26.1739 H       1  GLS11       0.2095
     28 H          36.1087   22.8092   27.8314 H       1  GLS11       0.1535
     29 H          33.4928   24.9748   30.1275 H       1  GLS11       0.1592
@<TRIPOS>BOND
     1     1     2    1
     2     1    11    1
     3     1    12    1
     4     1    16    1
     5     2     3    1
     6     2     4    1
     7     4     5    1
     8     4     6    1
     9     6     7    1
    10     6     8    1
    11     8     9    1
    12     8    11    1
    13     9    10    1
    14    12    13   am
    15    13    14    2
    16    13    15   am
    17    15    16   am
    18    16    17    2
    19     2    18    1
    20     3    19    1
    21     4    20    1
    22     5    21    1
    23     6    22    1
    24     7    23    1
    25     8    24    1
    26     9    25    1
    27     9    26    1
    28    10    27    1
    29    12    28    1
    30    15    29    1
