@<TRIPOS>MOLECULE
1a28_ligand
 53 56 0 0 0
SMALL
USER_CHARGES

@<TRIPOS>ATOM
      1 C1         21.2060    9.9350   63.0810 C.3     1  STR11      -0.0367
      2 C2         21.2410    9.4460   64.5510 C.3     1  STR11       0.0107
      3 C3         22.0000    8.1250   64.6300 C.2     1  STR11       0.1561
      4 O3         21.7010    7.3010   65.5120 O.2     1  STR11      -0.2927
      5 C4         23.1180    7.8720   63.7340 C.2     1  STR11      -0.0194
      6 C5         23.4530    8.7270   62.7850 C.2     1  STR11      -0.0601
      7 C6         24.6970    8.4430   61.9510 C.3     1  STR11      -0.0305
      8 C7         24.4490    8.6370   60.4430 C.3     1  STR11      -0.0459
      9 C8         23.7890    9.9970   60.0980 C.3     1  STR11      -0.0338
     10 C9         22.4340   10.0950   60.8720 C.3     1  STR11      -0.0288
     11 C10        22.6140   10.0230   62.4340 C.3     1  STR11      -0.0072
     12 C11        21.6330   11.3540   60.4500 C.3     1  STR11      -0.0486
     13 C12        21.4320   11.4340   58.9110 C.3     1  STR11      -0.0464
     14 C13        22.7860   11.4040   58.1690 C.3     1  STR11      -0.0195
     15 C14        23.4830   10.0600   58.5980 C.3     1  STR11      -0.0319
     16 C15        24.6740    9.9180   57.6180 C.3     1  STR11      -0.0488
     17 C16        24.0720   10.4500   56.2670 C.3     1  STR11      -0.0427
     18 C17        22.7140   11.1490   56.6270 C.3     1  STR11       0.0229
     19 C18        23.6590   12.6770   58.4540 C.3     1  STR11      -0.0587
     20 C19        23.4270   11.2460   63.0070 C.3     1  STR11      -0.0556
     21 C20        22.3750   12.3880   55.7810 C.2     1  STR11       0.1339
     22 O20        23.2120   12.8760   55.0520 O.2     1  STR11      -0.2974
     23 C21        21.0090   12.9760   55.8570 C.3     1  STR11      -0.0058
     24 H          20.7586   10.9067   63.0561 H       1  STR11       0.0278
     25 H          20.6419    9.2192   62.5204 H       1  STR11       0.0278
     26 H          20.2407    9.3042   64.9035 H       1  STR11       0.0345
     27 H          21.7331   10.1768   65.1582 H       1  STR11       0.0345
     28 H          23.6630    7.0024   63.8428 H       1  STR11       0.0652
     29 H          25.0020    7.4317   62.1219 H       1  STR11       0.0310
     30 H          25.4553    9.1365   62.2491 H       1  STR11       0.0310
     31 H          23.8073    7.8520   60.1010 H       1  STR11       0.0271
     32 H          25.4039    8.6176   59.9605 H       1  STR11       0.0271
     33 H          24.4496   10.7944   60.3676 H       1  STR11       0.0307
     34 H          21.8644    9.2323   60.5958 H       1  STR11       0.0312
     35 H          22.1640   12.2247   60.7738 H       1  STR11       0.0268
     36 H          20.6662   11.2956   60.9047 H       1  STR11       0.0268
     37 H          20.9232   12.3445   58.6723 H       1  STR11       0.0271
     38 H          20.8562   10.5875   58.5999 H       1  STR11       0.0271
     39 H          22.8549    9.1982   58.5100 H       1  STR11       0.0309
     40 H          24.9809    8.8969   57.5285 H       1  STR11       0.0268
     41 H          25.5489   10.4481   57.9319 H       1  STR11       0.0268
     42 H          23.9015    9.6367   55.5930 H       1  STR11       0.0272
     43 H          24.7424   11.1323   55.7875 H       1  STR11       0.0272
     44 H          21.8840   10.5207   56.3794 H       1  STR11       0.0383
     45 H          23.7060   12.8483   59.5092 H       1  STR11       0.0235
     46 H          23.2189   13.5261   57.9741 H       1  STR11       0.0235
     47 H          24.6472   12.5244   58.0730 H       1  STR11       0.0235
     48 H          23.5194   11.1470   64.0684 H       1  STR11       0.0238
     49 H          22.9124   12.1555   62.7770 H       1  STR11       0.0238
     50 H          24.4010   11.2656   62.5645 H       1  STR11       0.0238
     51 H          20.4164   12.4134   56.5478 H       1  STR11       0.0306
     52 H          20.5534   12.9460   54.8893 H       1  STR11       0.0306
     53 H          21.0756   13.9912   56.1885 H       1  STR11       0.0306
@<TRIPOS>BOND
     1     1     2    1
     2     1    11    1
     3     2     3    1
     4     3     4    2
     5     3     5    1
     6     5     6    2
     7     6     7    1
     8     6    11    1
     9     7     8    1
    10     8     9    1
    11     9    10    1
    12     9    15    1
    13    10    11    1
    14    10    12    1
    15    11    20    1
    16    12    13    1
    17    13    14    1
    18    14    15    1
    19    14    18    1
    20    14    19    1
    21    15    16    1
    22    16    17    1
    23    17    18    1
    24    18    21    1
    25    21    22    2
    26    21    23    1
    27     1    24    1
    28     1    25    1
    29     2    26    1
    30     2    27    1
    31     5    28    1
    32     7    29    1
    33     7    30    1
    34     8    31    1
    35     8    32    1
    36     9    33    1
    37    10    34    1
    38    12    35    1
    39    12    36    1
    40    13    37    1
    41    13    38    1
    42    15    39    1
    43    16    40    1
    44    16    41    1
    45    17    42    1
    46    17    43    1
    47    18    44    1
    48    19    45    1
    49    19    46    1
    50    19    47    1
    51    20    48    1
    52    20    49    1
    53    20    50    1
    54    23    51    1
    55    23    52    1
    56    23    53    1
