@<TRIPOS>MOLECULE
1a69_ligand
 31 33 0 0 0
SMALL
USER_CHARGES

@<TRIPOS>ATOM
      1 N1        -18.6290   72.4960   64.7810 N.ar    1  FMB11      -0.3117
      2 C2        -17.6590   72.8430   65.6920 C.ar    1  FMB11       0.0968
      3 N3        -17.4340   72.1880   66.8280 N.ar    1  FMB11      -0.2337
      4 C4        -18.2650   71.1350   66.9710 C.ar    1  FMB11       0.1210
      5 C5        -19.2640   70.7080   66.1180 C.ar    1  FMB11       0.1487
      6 C6        -19.4960   71.4120   64.9200 C.ar    1  FMB11       0.2768
      7 O6        -20.3350   71.1770   64.0460 O.2     1  FMB11      -0.2655
      8 N7        -19.9000   69.5840   66.6230 N.ar    1  FMB11      -0.2701
      9 N8        -19.2890   69.3560   67.7600 N.ar    1  FMB11      -0.1732
     10 C9        -18.2820   70.2630   68.0340 C.ar    1  FMB11       0.1201
     11 C1'       -17.5510   69.7970   69.2390 C.3     1  FMB11       0.1330
     12 C2'       -16.4120   70.7300   69.6340 C.3     1  FMB11       0.1153
     13 O2'       -15.2040   69.9950   69.6560 O.3     1  FMB11      -0.3862
     14 C3'       -16.8460   71.3300   70.9950 C.3     1  FMB11       0.1120
     15 O3'       -16.1160   70.8000   72.1220 O.3     1  FMB11      -0.3865
     16 C4'       -18.3190   70.9540   71.1130 C.3     1  FMB11       0.1109
     17 O4'       -18.4590   69.7460   70.3290 O.3     1  FMB11      -0.3595
     18 C5'       -19.2870   72.0220   70.6090 C.3     1  FMB11       0.0729
     19 O5'       -20.6560   71.5800   70.5560 O.3     1  FMB11      -0.3924
     20 H         -18.7178   73.0520   63.9734 H       1  FMB11       0.1698
     21 H         -17.0686   73.6628   65.4813 H       1  FMB11       0.1028
     22 H         -20.6400   69.0746   66.2203 H       1  FMB11       0.1892
     23 H         -17.1364   68.8382   69.0072 H       1  FMB11       0.0690
     24 H         -16.2256   71.5317   68.9504 H       1  FMB11       0.0650
     25 H         -15.2946   69.2421   70.2609 H       1  FMB11       0.2100
     26 H         -16.6564   72.3829   71.0164 H       1  FMB11       0.0647
     27 H         -16.2426   69.8393   72.1664 H       1  FMB11       0.2100
     28 H         -18.5748   70.8332   72.1449 H       1  FMB11       0.0646
     29 H         -18.9870   72.3127   69.6239 H       1  FMB11       0.0584
     30 H         -19.2464   72.8351   71.3033 H       1  FMB11       0.0584
     31 H         -20.7330   70.8399   69.9337 H       1  FMB11       0.2095
@<TRIPOS>BOND
     1     1     2   ar
     2     1     6   ar
     3     2     3   ar
     4     3     4   ar
     5     4     5   ar
     6     4    10   ar
     7     5     6   ar
     8     5     8   ar
     9     6     7    2
    10     8     9   ar
    11     9    10   ar
    12    10    11    1
    13    11    12    1
    14    11    17    1
    15    12    13    1
    16    12    14    1
    17    14    15    1
    18    14    16    1
    19    16    17    1
    20    16    18    1
    21    18    19    1
    22     1    20    1
    23     2    21    1
    24     8    22    1
    25    11    23    1
    26    12    24    1
    27    13    25    1
    28    14    26    1
    29    15    27    1
    30    16    28    1
    31    18    29    1
    32    18    30    1
    33    19    31    1
