@<TRIPOS>MOLECULE
1a9q_ligand
 14 15 0 0 0
SMALL
USER_CHARGES

@<TRIPOS>ATOM
      1 N1         26.4350   90.1800   73.3310 N.ar    1  HPA11      -0.3116
      2 C2         25.4470   89.2520   73.2650 C.ar    1  HPA11       0.0984
      3 N3         24.1760   89.5420   73.4220 N.ar    1  HPA11      -0.2181
      4 C4         23.9780   90.8460   73.6490 C.ar    1  HPA11       0.1646
      5 C5         24.9260   91.8320   73.7320 C.ar    1  HPA11       0.1717
      6 C6         26.2860   91.5180   73.5670 C.ar    1  HPA11       0.2790
      7 O6         27.2920   92.2380   73.5880 O.2     1  HPA11      -0.2654
      8 N7         24.2930   93.0240   73.9720 N.ar    1  HPA11      -0.2288
      9 C8         22.9680   92.7560   74.0240 C.ar    1  HPA11       0.0958
     10 N9         22.7370   91.4180   73.8270 N.ar    1  HPA11      -0.3291
     11 H          27.3545   89.8558   73.1947 H       1  HPA11       0.1698
     12 H          25.7074   88.2702   73.0825 H       1  HPA11       0.1028
     13 H          22.2324   93.4608   74.1891 H       1  HPA11       0.1027
     14 H          21.8650   90.9611   73.8152 H       1  HPA11       0.1682
@<TRIPOS>BOND
     1     1     2   ar
     2     1     6   ar
     3     2     3   ar
     4     3     4   ar
     5     4     5   ar
     6     4    10   ar
     7     5     6   ar
     8     5     8   ar
     9     6     7    2
    10     8     9   ar
    11     9    10   ar
    12     1    11    1
    13     2    12    1
    14     9    13    1
    15    10    14    1
